/*--------------------------------*- C++ -*----------------------------------*\
| =========                 |                                                 |
| \\      /  F ield         | OpenFOAM: The Open Source CFD Toolbox           |
|  \\    /   O peration     | Version:  2506                                  |
|   \\  /    A nd           | Website:  www.openfoam.com                      |
|    \\/     M anipulation  |                                                 |
\*---------------------------------------------------------------------------*/
FoamFile
{
    version     2.0;
    format      ascii;
    arch        "LSB;label=32;scalar=64";
    class       featureEdgeMesh;
    location    "constant/triSurface";
    object      c608.eMesh;
}
// * * * * * * * * * * * * * * * * * * * * * * * * * * * * * * * * * * * * * //


// points:

1360
(
(25.030283 -3.80998206 -0.474292159)
(25.0301723 -3.80997705 -0.476575613)
(24.4815712 -2.28598309 -0.443673223)
(24.4814663 -2.28597975 -0.445956439)
(24.3426495 -1.90388191 -0.482959419)
(24.342804 -1.90450764 -0.485072196)
(23.838974 -0.546567142 -0.854364038)
(23.8388958 -0.546564579 -0.856648803)
(27.8840694 -0.710473835 1.96140039)
(27.8843479 -0.710473835 1.96366775)
(27.5905972 -0.710473835 2.00040531)
(27.6960335 -0.0698499978 1.98565459)
(27.696312 -0.0698499978 1.98792183)
(4.24755847e-12 -7.16332321e-13 -6.86552065e-11)
(23.5394573 5.91408247e-18 0.673200309)
(23.1267319 3.65723687e-14 -0.488369375)
(26.6257801 3.906596e-20 2.25600696)
(26.5326881 2.09841388e-19 2.25236487)
(26.4393406 3.45876112e-19 2.23707461)
(26.2936478 4.13788855e-19 2.18789387)
(27.498064 -2.38121899e-16 0.525245607)
(27.7678127 -2.21728768e-16 1.85483134)
(27.7836628 -1.58439352e-16 0.0299611036)
(27.7821407 -6.87717697e-17 0.0489513353)
(28.3688297 -4.1685186e-16 -0.797848523)
(28.3683453 1.6829961e-16 -0.810539663)
(27.759407 3.18407527e-17 -0.61620146)
(27.756485 -1.62507142e-17 -0.635025144)
(27.9962101 4.05725374e-17 1.85896516)
(27.4955254 9.24966679e-18 0.51272285)
(27.4463253 1.07458636e-17 0.270248383)
(0.0229193084 -0.0295739826 -0.00190171856)
(27.498064 -0.00114300009 0.525245607)
(27.4955254 -0.00114300009 0.51272285)
(27.4463253 -0.00114300009 0.270248383)
(27.7678127 -0.00114300009 1.85483134)
(26.4602451 -0.000959971687 2.24136662)
(28.3688297 -0.514349997 -0.797848523)
(28.3683453 -0.514349997 -0.810539663)
(0.22587572 -0.177677527 -0.0289618913)
(15.2991982 -0.0962425321 0.651301503)
(15.2999916 -0.0941351131 0.651688337)
(15.1811714 -0.0560407601 0.675444424)
(15.1819677 -0.0539333411 0.67583096)
(15.2976227 -0.195483014 0.613222778)
(15.2984381 -0.19354181 0.614112556)
(15.1798296 -0.160884812 0.645736575)
(15.1806488 -0.158943594 0.646626353)
(15.2951612 -0.28162986 0.550668716)
(15.2958574 -0.280275524 0.55181402)
(15.1775188 -0.254699528 0.590213418)
(15.1782112 -0.253345162 0.591358721)
(15.2915335 -0.349464387 0.46777299)
(15.2923832 -0.348252296 0.469515949)
(15.1739187 -0.330387205 0.511720836)
(15.1747656 -0.329175115 0.513463795)
(24.3467636 -1.91622066 -0.48248139)
(24.3469105 -1.9168489 -0.484593928)
(24.4774876 -2.27404809 -0.439296544)
(24.9540443 -4.49580002 -0.49719125)
(24.1665325 -4.43711329 -0.504266918)
(24.0125141 -4.38843918 -0.495426506)
(23.9534607 -4.36693573 -0.491935283)
(23.6984978 -4.25984144 -0.476738691)
(24.3020077 -4.47010279 -0.511842489)
(24.366251 -4.48235607 -0.515241027)
(24.4097786 -4.4896431 -0.517210305)
(23.5722237 -4.20102549 -0.469293684)
(25.0348835 -3.82195306 -0.468111068)
(25.0347939 -3.82194304 -0.470395327)
(25.2774124 -4.49580002 -0.483933747)
(25.2774982 -4.49580002 -0.481649518)
(24.2969341 -4.46910715 -0.509815097)
(24.14744 -4.43164444 -0.501501679)
(23.9487114 -4.36506128 -0.489681482)
(23.7372589 -4.27721024 -0.476775557)
(23.5867043 -4.20770264 -0.467775553)
(28.2090092 -0.520699978 -0.848489583)
(28.2088089 -0.520699978 -0.850765884)
(24.575346 -0.520699978 -0.50545162)
(28.6130219 -2.24341202 -0.693834305)
(28.6132278 -2.24341202 -0.691557944)
(11.2492456 -0.359354883 0.386078745)
(9.95422935 -0.317341 0.401816577)
(12.2519875 -1.26104224 0.388892293)
(12.2519007 -1.26104224 0.386607826)
(12.2750549 -0.463138789 0.136147738)
(12.3152714 -0.470146894 0.126824185)
(27.0234413 -0.441959977 -0.265035272)
(27.0234413 -0.454659998 -0.265035272)
(12.356041 -0.477252036 0.120346904)
(13.1886473 -0.424464494 0.287159979)
(13.2037735 -0.434894711 0.248121187)
(23.688055 -2.28607082 -0.355618805)
(24.2358246 -3.81005859 -0.39468655)
(24.2365818 -3.80996943 -0.45468694)
(23.6866264 -2.28596377 -0.427340001)
(23.4820385 -1.91593206 -0.467236549)
(23.4859142 -1.89421785 -0.394503653)
(24.239769 -3.82211828 -0.395413488)
(23.6834583 -2.27426147 -0.355635315)
(24.2410736 -3.82185435 -0.454985648)
(23.6825161 -2.27394342 -0.427218586)
(23.4902554 -1.90575039 -0.391489685)
(23.486166 -1.92757416 -0.464281797)
(22.9343853 -0.508692384 -0.711005449)
(22.9211712 -0.489264965 -0.87626195)
(22.9273968 -0.48926419 -0.710496426)
(22.9284611 -0.508692384 -0.868833721)
(11.2561245 -2.24137676e-16 0.627528071)
(23.9105644 -7.11091521e-18 0.245806262)
(23.8810253 1.60692688e-17 -0.541039526)
(27.2559261 2.5209671e-13 1.87404883)
(27.260067 -8.44725982e-13 1.88660228)
(26.8163052 -3.19371717e-11 0.586690187)
(26.4342136 4.88600533e-17 0.131991804)
(26.8121643 -3.88110464e-12 0.574311495)
(26.9490719 0 0.315064162)
(26.945261 5.30899847e-12 0.213535681)
(26.4046707 4.97084131e-17 -0.65485394)
(27.0068531 3.00334954e-17 -0.706684113)
(27.0063725 -8.85019794e-17 -0.719375253)
(0.154641584 -0.141483918 -0.0187704936)
(26.8163052 -0.0898614153 0.586690187)
(26.8121643 -0.0970447883 0.574311495)
(27.0741158 -0.454654902 -0.269082516)
(27.0742149 -0.454659998 -0.266941041)
(26.9450073 -0.0825499967 0.206317469)
(26.9490719 -0.0883332193 0.315064162)
(26.9274292 -0.475301325 -0.261431009)
(22.9345131 -0.0626189485 -0.445343256)
(23.0896053 -0.0201246794 -0.481392235)
(23.1266613 -0.000696717703 -0.488356918)
(15.2960396 -0.0904471949 0.626221776)
(15.1780205 -0.0502592586 0.650424421)
(15.1777601 -0.147212863 0.623683512)
(15.2955589 -0.181852266 0.5912503)
(15.2947397 -0.183774605 0.590323389)
(15.1769648 -0.149235696 0.622952998)
(15.175787 -0.236018255 0.572338939)
(15.2934418 -0.263028681 0.532882333)
(15.2927427 -0.26436168 0.531713426)
(15.1751032 -0.237465769 0.571296036)
(15.1729946 -0.307748944 0.499423444)
(15.2906199 -0.326913744 0.455533236)
(15.178793 -0.0481069908 0.650617182)
(15.1721563 -0.30907914 0.497757941)
(15.2968397 -0.0883476213 0.626642346)
(15.2897692 -0.328085214 0.453763872)
(10.2581463 -0.344569534 0.385594845)
(10.0698786 -0.324828148 0.399566889)
(0.240453571 -0.184848696 -0.0300455838)
(27.2559261 -0.0245842133 1.87404883)
(27.260067 -0.0244051516 1.88660228)
(12.8658314 -0.445390016 0.209048629)
(22.4351158 -3.70840001 -0.415162981)
(17.9806328 -2.10764766 -0.20685178)
(24.4413757 -2.17378926 -0.437615842)
(24.4775753 -2.2740581 -0.437012315)
(22.7863674 -3.84809995 -0.428988725)
(24.2384243 -4.4558816 -0.507905006)
(24.0396843 -4.39788294 -0.496656358)
(23.8021355 -4.30584621 -0.482461065)
(23.4974442 -4.16538429 -0.464647263)
(23.1556015 -4.00408888 -0.446588635)
(23.2023697 -4.02532339 -0.449529737)
(24.4527378 -4.49580002 -0.518751323)
(23.2043533 -4.02561283 -0.450089008)
(24.4195938 -2.11345363 -0.438026786)
(24.2405815 -4.45609474 -0.505581915)
(24.0350113 -4.39576721 -0.493514121)
(23.7958851 -4.30236864 -0.478744805)
(23.3920536 -4.11369276 -0.454742551)
(11.6271496 -0.411463737 0.252299607)
(12.2750549 -0.463138789 0.136173129)
(12.3152714 -0.470146894 0.126849592)
(12.3151035 -0.468525618 0.122768)
(12.3556395 -0.473494351 0.109347045)
(11.5380697 -0.478031039 0.0950574875)
(11.4242525 -0.443581015 0.209741771)
(11.458374 -0.455216795 0.175360456)
(11.8716707 -0.459836513 0.138274997)
(11.8718882 -0.460473537 0.136189848)
(13.0361032 -0.422545999 0.28327325)
(11.6271496 -0.411463737 0.252325028)
(24.785635 -3.13049173 -0.46064043)
(24.5661564 -2.5209043 -0.448393077)
(24.4998627 -2.33677816 -0.444693536)
(25.0165615 -3.77187705 -0.473526627)
(25.0164566 -3.77188206 -0.475810051)
(24.7972107 -3.81001019 -0.447377056)
(23.8909359 -2.28605127 -0.375859529)
(24.7961254 -3.80997705 -0.469727516)
(23.8881054 -2.28596473 -0.434082478)
(23.6323662 -1.89546049 -0.408247083)
(24.3333397 -1.87879622 -0.489823788)
(23.6428204 -1.91410136 -0.471588314)
(24.0128746 -1.01519966 -0.72613138)
(24.0003891 -0.981547654 -0.735339403)
(23.212162 -0.520443738 -0.743478835)
(22.9664211 -0.510202408 -0.714289904)
(23.4551754 -0.530570209 -0.780758917)
(23.9185429 -0.761197865 -0.797918141)
(24.0912857 -1.22670996 -0.670539141)
(22.9545345 -0.509756923 -0.869110346)
(23.4011154 -0.52834487 -0.867796838)
(22.929718 -0.495722175 -0.710726261)
(22.9333401 -0.508898616 -0.868873537)
(27.8400784 -0.710473835 1.9674412)
(27.8405571 -0.710473835 1.9713037)
(27.7178516 -0.710473835 1.99113774)
(27.6404057 -0.710473835 1.9996624)
(27.6132545 -0.710473835 1.99520326)
(27.6103573 -0.710473835 2.00174689)
(27.595829 -0.710473835 1.99800766)
(27.6005287 -0.710473835 2.00199723)
(27.593544 -0.710473835 1.99860358)
(27.5927067 -0.710473835 1.9988786)
(27.5940762 -0.710473835 2.00172067)
(27.5918941 -0.710473835 1.99920666)
(27.5922222 -0.710473835 2.00141358)
(27.5914593 -0.710473835 2.00117755)
(27.4926281 -0.0698499978 2.00779128)
(26.9786358 -0.0698499978 2.06755257)
(26.4461994 -0.0698499978 2.1362195)
(26.6626854 -0.0698499978 2.10802412)
(26.3755894 -0.0698499978 2.14806008)
(26.4168129 -0.1055227 2.14788008)
(26.4443455 -0.114440799 2.14168692)
(26.3505688 -0.0698499978 2.15515566)
(26.3582401 -0.0698499978 2.15241718)
(26.3443737 -0.0698499978 2.15911865)
(26.3450584 -0.0698499978 2.1584003)
(26.343914 -0.0698499978 2.15983319)
(26.3436852 -0.0698499978 2.16054416)
(26.3436356 -0.0698499978 2.16125131)
(26.3477497 -0.0698499978 2.15651655)
(26.3460484 -0.0698499978 2.15759611)
(26.3492756 -0.0720796585 2.15794468)
(26.3555717 -0.0743091181 2.15592527)
(27.4949169 -0.0698499978 2.02558398)
(27.2086582 -0.0698499978 2.07430291)
(26.9266663 -0.0698499978 2.11525941)
(26.5456161 -0.0698499978 2.15787935)
(26.4178047 -0.0698499978 2.16715193)
(26.378458 -0.0698499978 2.16799355)
(26.3644371 -0.0698499978 2.16748571)
(26.3540249 -0.0698499978 2.16635537)
(26.3438396 -0.0698499978 2.1619854)
(26.3442707 -0.0698499978 2.16267705)
(26.3448544 -0.0698499978 2.16327357)
(26.3457184 -0.0698499978 2.16387248)
(26.3468876 -0.0698499978 2.16446495)
(26.3490963 -0.0698499978 2.16526031)
(0.129052415 6.05901237e-18 0.00701322732)
(0.17780678 2.14541054e-17 -0.0421118289)
(0.512780309 -8.92334486e-18 -0.097402446)
(0.827316046 1.290746e-16 -0.130151957)
(6.01192617 -1.64634948e-16 -0.46277684)
(9.67893124 2.6223164e-17 0.525992095)
(9.03839397 -6.77282871e-18 -0.651578069)
(11.3685446 -2.23778263e-17 0.712764621)
(11.3860149 5.1955469e-17 0.720266044)
(11.4042015 1.28981042e-16 0.725812852)
(11.3519917 -9.49085727e-17 0.703409314)
(11.422883 2.09525233e-16 0.729351342)
(11.4418364 5.13491214e-13 0.730838776)
(11.3365564 3.14915804e-14 0.692311049)
(10.3853455 -7.66527296e-17 -0.728229702)
(10.4189396 7.00971959e-18 0.568284869)
(11.0271769 -1.46651529e-17 0.609809816)
(11.8200855 -1.09615937e-16 -0.779905736)
(12.6948185 1.11106688e-16 0.760366738)
(12.9486227 5.68892929e-18 0.781788886)
(13.2075672 1.35559537e-16 0.791117549)
(14.4582539 -7.3090301e-17 -0.857771993)
(14.461854 4.28421774e-16 0.741535723)
(14.958005 3.21583814e-16 0.684088826)
(13.9643431 3.96063712e-16 0.776409447)
(13.5895844 3.75517419e-16 0.788428426)
(15.9645805 3.61848399e-16 0.546025813)
(16.8697224 -1.12370792e-16 -0.9211272)
(18.5073891 -1.12257458e-17 -0.955091298)
(20.239645 2.78729691e-16 -0.0403472893)
(21.3397694 -5.44009309e-18 0.641562879)
(21.34058 -5.44009309e-18 0.642585993)
(21.3390713 1.30904235e-17 0.639417291)
(21.3392658 -5.44009309e-18 0.640506744)
(21.3414555 -5.44009309e-18 0.643386066)
(21.3391037 -5.44009309e-18 0.637942374)
(21.3426628 -5.44009309e-18 0.644250154)
(21.3393116 -5.44009309e-18 0.636460006)
(21.344656 -5.44009309e-18 0.645360649)
(21.3396988 -5.44009309e-18 0.634975851)
(21.3402653 -5.44009309e-18 0.633494794)
(21.3410091 -5.44009309e-18 0.632022619)
(21.3488903 -5.44009309e-18 0.647086084)
(21.3419323 -5.44009309e-18 0.63056469)
(21.3430386 -5.44009309e-18 0.629126251)
(21.3443165 -5.44009309e-18 0.627712727)
(21.345768 -5.44009309e-18 0.626329958)
(21.3563824 -5.44009309e-18 0.649187922)
(21.3479671 -5.44009309e-18 0.624542832)
(21.3507824 -5.44009309e-18 0.622623861)
(21.3539429 -5.44009309e-18 0.6208179)
(21.3586445 -5.44009309e-18 0.618612409)
(21.3645229 -5.44009309e-18 0.61644578)
(21.377697 1.49037879e-17 0.652709603)
(21.3709164 -5.44009309e-18 0.614649475)
(21.3800278 -5.44009309e-18 0.612879634)
(21.3907108 -5.44009309e-18 0.611786127)
(21.3961678 -5.44009309e-18 0.611598492)
(21.4015751 1.49037879e-17 0.61165309)
(21.6254025 -7.6761566e-20 0.612167418)
(21.6862831 -3.13636382e-17 0.684645832)
(21.7368832 2.81290005e-19 0.601364315)
(21.3574848 -8.34492393e-18 0.136152998)
(21.3861504 -8.74831841e-18 0.139869168)
(21.4148941 -8.41122245e-18 0.140434191)
(21.3385944 -8.16236848e-18 0.132001385)
(21.9953308 -6.76901615e-17 0.701085448)
(21.886282 1.6940507e-18 0.570377052)
(21.461441 -8.99521941e-18 0.136021316)
(21.3198357 1.4940796e-17 0.127015874)
(21.5399685 -1.31855692e-17 0.118848197)
(22.0624294 4.33891924e-18 0.514570475)
(22.4052181 -7.49703634e-17 0.705586612)
(20.9213409 9.51620919e-18 -0.975062549)
(20.8423176 6.10798105e-18 -0.00282203406)
(20.6255188 3.49415608e-18 -0.0450054482)
(20.4636154 2.39286187e-19 -0.0577061065)
(20.3512802 2.66315699e-18 -0.0535625815)
(21.7280884 -2.158031e-17 0.0540362671)
(22.3455696 7.5569525e-18 0.419110417)
(22.8628006 -4.25984152e-17 0.697186828)
(22.5790691 7.74476221e-18 0.358361244)
(22.8545818 5.7203212e-18 0.310349405)
(22.3716431 -1.56899255e-17 -0.22578454)
(23.1738529 2.22362672e-18 0.278416514)
(23.3895054 4.68286849e-19 0.266024619)
(23.6059799 1.16846706e-17 0.25724104)
(22.8468704 1.43486753e-17 -0.991985261)
(22.6986523 -1.24344983e-17 -0.360103905)
(22.9413528 -1.33419592e-17 -0.442931056)
(25.838913 -1.41851268e-17 1.939955)
(22.9286766 1.5532915e-17 -0.993063033)
(23.1269512 1.60378117e-11 -0.488408208)
(23.3510609 -2.02883457e-18 -0.517062724)
(23.5764408 2.14535744e-17 -0.529604733)
(23.3097515 1.67169761e-17 -0.998288572)
(26.7169895 1.67171531e-17 2.24849653)
(26.3480282 4.06273506e-19 2.21012449)
(26.2412968 -2.46548196e-17 2.16161728)
(27.6565876 1.67171531e-17 2.11393666)
(24.6307964 1.67171498e-17 -1.01648462)
(24.7324181 1.67171531e-17 -1.01781583)
(27.9931374 2.24015395e-07 2.06563282)
(27.9947624 -9.41851823e-08 2.0650878)
(27.9914608 9.26492163e-08 2.06597733)
(27.9962845 1.2338441e-07 2.06434846)
(27.9977322 -4.16288977e-08 2.06342721)
(28.0002232 4.05936973e-08 2.0610981)
(28.0012398 -1.35033948e-08 2.05972242)
(27.999054 1.48761936e-09 2.06233954)
(28.0020523 -2.24779608e-08 2.05823636)
(28.0034218 -2.0718899e-07 2.05333161)
(28.0034504 1.13826211e-07 2.05161881)
(28.0031719 2.546914e-07 2.05501246)
(28.0027122 1.42807181e-07 2.05665827)
(27.9990826 1.86851564e-17 1.93511176)
(25.968504 -6.00110535e-17 2.01134372)
(25.3335667 2.48482905e-18 -1.01968753)
(26.7884388 1.67650893e-11 0.131991804)
(26.8042393 6.70586642e-11 0.131000072)
(26.8197575 6.70586642e-11 0.12805903)
(26.8298664 6.70586642e-11 0.125040263)
(26.8396988 2.23534021e-11 0.121192545)
(25.9408169 9.33515276e-17 -1.00042474)
(27.1810722 5.02143249e-12 0.171317741)
(27.1313152 1.39687595e-17 -0.0074244733)
(27.1978378 -5.28801842e-18 0.170688823)
(27.1352272 -2.84992308e-17 -0.00918987207)
(27.1372337 -1.72698487e-17 -0.00988492556)
(27.1380215 -1.22985271e-17 -0.0100716278)
(27.1387844 -8.20732161e-18 -0.0101937568)
(27.1395721 -5.18709163e-18 -0.0102565484)
(27.1403313 1.39943293e-17 -0.0102459919)
(27.4917908 9.81541316e-17 0.11840906)
(26.763979 5.06074161e-17 -0.65485394)
(26.493927 1.7390313e-16 -0.966427028)
(26.7782536 -1.04309312e-14 -0.654043674)
(27.1180325 -2.0758202e-12 -0.53818357)
(27.1192493 -2.07464709e-12 -0.538078666)
(27.1205215 -1.38315043e-12 -0.538137853)
(27.116457 -2.07878419e-12 -0.538503826)
(27.1146278 -2.08369129e-12 -0.53906244)
(27.1112995 -1.39608485e-12 -0.540274024)
(26.806118 -7.15824291e-14 -0.647653759)
(26.7923775 -2.07797816e-14 -0.65163368)
(27.1479282 -8.0671087e-18 -0.711980045)
(27.1646652 -7.91396912e-17 -0.712608933)
(27.1547852 1.09500032e-16 -0.912586451)
(27.3672562 -1.31762301e-16 -0.73292309)
(27.5745182 -9.99358409e-12 -0.73445344)
(27.7816811 6.17266239e-15 -0.723478377)
(27.8381462 2.08789083e-10 -0.72325027)
(27.8831787 -6.45425447e-16 -0.72829777)
(27.8100014 -6.92127633e-10 -0.722254097)
(27.9319725 2.27016183e-18 -0.843189597)
(27.4617195 -2.27043476e-16 -0.682516038)
(27.7834854 -0.055865854 0.025098905)
(27.7832565 -0.0821787268 0.0193500575)
(27.7836132 -0.0280383993 0.028741166)
(27.7828007 -0.119470194 0.0070903413)
(27.7821655 -0.155002803 -0.00958919898)
(27.7816811 -0.177384987 -0.0230149161)
(27.7810974 -0.198611334 -0.03820033)
(27.7802601 -0.224769831 -0.0608944669)
(27.7792931 -0.248344451 -0.086258173)
(27.7782516 -0.269061208 -0.114002444)
(27.7771358 -0.286699444 -0.143795982)
(27.7759418 -0.301044375 -0.175304979)
(27.7747231 -0.311922669 -0.208170488)
(27.7734528 -0.319232017 -0.24200809)
(27.7721558 -0.322876424 -0.276432514)
(27.7708607 -0.322801232 -0.311048925)
(27.7695675 -0.319031894 -0.345460564)
(27.7682953 -0.311602116 -0.379271269)
(27.7670517 -0.300581545 -0.412089348)
(27.7658844 -0.286119819 -0.443545699)
(27.7647648 -0.268377155 -0.473276913)
(27.7637253 -0.247541383 -0.50093168)
(27.7627831 -0.223870516 -0.526206434)
(27.7619209 -0.197634026 -0.548809886)
(27.7611828 -0.169119358 -0.568466008)
(27.7605743 -0.138666913 -0.584967613)
(27.7600918 -0.106626146 -0.598125815)
(27.7597103 -0.07245294 -0.607976913)
(27.7594814 -0.0364584476 -0.614132643)
(12.5285349 -0.530318439 0.113598622)
(12.5834122 -0.541978121 0.107005678)
(0.0152481003 -0.0196779147 -0.000976994284)
(0.146277815 -0.136252791 -0.0153191341)
(0.143827677 -0.133852288 -0.0141129252)
(0.146948248 -0.137028739 -0.0159879234)
(0.146628156 -0.136680707 -0.0156680048)
(0.0784860775 -0.0865928158 -0.00699193729)
(0.076442495 -0.0842253789 -0.00630415045)
(0.119976953 -0.119379111 -0.012331225)
(0.121867962 -0.120890163 -0.013018759)
(0.150341377 -0.139233202 -0.0169252232)
(0.150712475 -0.139483288 -0.0172989499)
(0.150838152 -0.139187068 -0.0161845144)
(0.152282879 -0.140343592 -0.017016599)
(0.0264788922 -0.0339198187 -0.00236128201)
(0.149842143 -0.138857812 -0.0165781118)
(27.0947895 -0.0592450686 0.56159097)
(26.8637772 -0.0860090256 0.582412064)
(27.7565594 -0.0393197313 -0.632760525)
(27.7568398 -0.081412971 -0.625207543)
(27.7572975 -0.121003844 -0.612934768)
(27.7579079 -0.157256514 -0.596782148)
(27.7587204 -0.193195656 -0.575320423)
(27.7596073 -0.224397078 -0.551247776)
(27.7605743 -0.250805795 -0.525719047)
(27.7616673 -0.274939001 -0.496681035)
(27.762886 -0.296143442 -0.464438766)
(27.7641811 -0.313823104 -0.429454058)
(27.7655792 -0.32748729 -0.392329425)
(27.767025 -0.336788505 -0.353776038)
(27.7685013 -0.341550261 -0.314568818)
(27.7699738 -0.341778845 -0.275497288)
(27.7713966 -0.337655395 -0.237311676)
(27.7727909 -0.329513192 -0.200680077)
(27.7740879 -0.317803532 -0.166154757)
(27.7752819 -0.303053498 -0.134153977)
(27.7763729 -0.285827219 -0.10495773)
(27.7773647 -0.26668781 -0.0787153393)
(27.7782269 -0.246169299 -0.0554618165)
(27.7789898 -0.224756628 -0.0351386406)
(27.7796497 -0.202872872 -0.0176163409)
(27.780159 -0.183415532 -0.00431203842)
(27.7805901 -0.164073437 0.0070860032)
(27.78125 -0.126620144 0.024682885)
(27.7817345 -0.0870000347 0.0377161801)
(27.7820377 -0.0460697822 0.0458384678)
(27.7821159 -0.0230162404 0.0481770448)
(27.1549873 -0.0545737818 0.54341501)
(27.384325 -0.454659998 -0.278583139)
(27.4726639 -0.00114300009 0.40002054)
(26.946352 -0.0814628005 0.242382899)
(26.9476986 -0.0835381821 0.278586954)
(27.1944332 -0.0532680899 0.29295218)
(27.1645126 -0.441959977 -0.270331174)
(28.3672543 -0.0414994881 -0.795817792)
(28.3625793 -0.0823798403 -0.789797783)
(28.3549366 -0.122138366 -0.779973805)
(28.3445454 -0.160344914 -0.766615927)
(28.3316689 -0.196653888 -0.750049829)
(28.2809429 -0.291732967 -0.684876204)
(28.2995872 -0.262479275 -0.70882076)
(28.2653751 -0.312863737 -0.664890468)
(28.2489643 -0.3325589 -0.643836915)
(28.3165531 -0.23081927 -0.730621338)
(27.5234642 -0.00114300009 0.650470376)
(26.5958843 -0.00330900261 2.25547838)
(26.6568947 -0.00300137838 2.25446892)
(26.5051289 -0.00378317502 2.24781156)
(26.2804146 -0.000776419067 2.18155646)
(23.1149387 -0.0102982195 -0.48623243)
(22.687706 -0.110486217 -0.372320831)
(23.121294 -0.00657188194 -0.487395793)
(23.121233 -0.00647109933 -0.487384349)
(23.1232986 -0.00495120417 -0.487755448)
(23.1264496 -0.0013979685 -0.488319069)
(24.7372227 -0.514349997 -0.889861286)
(24.6355495 -0.514349997 -0.889912367)
(23.8172455 -0.514349997 -0.885607064)
(23.3142128 -0.505187452 -0.879376948)
(22.9330578 -0.489785403 -0.876362205)
(0.0655082762 -0.0747847632 -0.00755491015)
(0.0955441818 -0.099420324 -0.0123455934)
(11.0637703 -0.425838888 0.271554172)
(11.4242525 -0.443581015 0.209716365)
(10.4920778 -0.371459484 0.360141009)
(10.7188225 -0.396089643 0.329055458)
(10.2027636 -0.36758551 0.353079796)
(10.0233221 -0.345392495 0.373437643)
(9.95422935 -0.317341 0.401791185)
(0.21125716 -0.169659987 -0.0278389342)
(0.354440242 -0.223212734 -0.0448678546)
(0.350228667 -0.222201675 -0.0443944782)
(0.383095741 -0.228978544 -0.0468615517)
(0.398788631 -0.229742691 -0.0496363975)
(0.402405322 -0.229980633 -0.0500077233)
(0.365234226 -0.225964069 -0.0455099158)
(0.37578842 -0.228151262 -0.0460950807)
(5.83997059 -0.372566938 -0.315640718)
(5.78367424 -0.378324121 -0.299176186)
(0.223705769 -0.177677467 -0.0267734807)
(0.207041681 -0.169656709 -0.0235913992)
(0.276038051 -0.199648678 -0.0332232267)
(0.325419486 -0.216093644 -0.0405200087)
(26.5233383 -0.514349997 -0.869501472)
(25.5989075 -0.514349997 -0.884230912)
(27.5823421 -0.514349997 -0.842312753)
(27.2796001 -0.0238446873 1.87316024)
(27.3777218 -0.0204150416 1.86947656)
(27.9960594 -0.00082124857 1.85897136)
(27.9955997 -0.00152217655 1.85898852)
(27.994915 -0.00200009323 1.85901427)
(27.9941025 -0.00218498474 1.85904491)
(27.9968948 -0.0074519054 1.93157613)
(27.9940529 -0.0107407207 1.92806876)
(15.367713 -0.762000024 -0.0970068946)
(16.1182384 -0.762000024 -0.196658984)
(13.5433807 -0.434345573 0.274369776)
(13.556179 -0.428704739 0.305152297)
(16.2454319 -0.454115152 0.118337207)
(16.4044857 -0.450564504 0.102775365)
(28.0601406 -0.514349997 -0.405626565)
(28.0163765 -0.505399525 -0.355733335)
(28.0323296 -0.510709643 -0.373116583)
(27.9618969 -0.456043541 -0.314119279)
(27.9473915 -0.455874652 -0.308869839)
(27.944622 -0.476009935 -0.30807355)
(27.9576015 -0.47951743 -0.312352687)
(27.9340305 -0.455687702 -0.305488586)
(27.9162006 -0.455440283 -0.302336186)
(27.9266396 -0.472702652 -0.304027319)
(27.9014931 -0.470014811 -0.30047363)
(27.8992577 -0.455229968 -0.30023104)
(27.7978096 -0.46735999 -0.294106603)
(27.7978096 -0.454659998 -0.294106603)
(28.2165527 -0.365235746 -0.602350354)
(28.1822395 -0.3927297 -0.558515012)
(28.1463509 -0.415146738 -0.5129233)
(28.1092396 -0.432591707 -0.466126829)
(28.0709629 -0.44515276 -0.418749958)
(28.0312386 -0.452902824 -0.371878624)
(28.0462227 -0.513444006 -0.389100581)
(28.0030441 -0.455447137 -0.34250325)
(27.9858475 -0.456012815 -0.328034401)
(27.9823418 -0.489417851 -0.325526923)
(27.9999428 -0.498037636 -0.339645237)
(27.9733009 -0.45610249 -0.319819272)
(27.9694901 -0.483772695 -0.317748666)
(26.927557 -0.47591728 -0.25813207)
(26.927454 -0.476695746 -0.260749549)
(26.9276581 -0.47542271 -0.255439162)
(26.9273796 -0.477750868 -0.263269216)
(26.9272766 -0.479073942 -0.265668511)
(26.9272003 -0.48065713 -0.267925054)
(26.9277573 -0.475220799 -0.252693594)
(26.9781513 -0.469551772 -0.263335019)
(27.0289516 -0.46735999 -0.265242547)
(23.8807392 -2.27396059 -0.432223409)
(23.6505833 -1.92584431 -0.469228685)
(22.4863739 -3.71634245 -0.419571191)
(22.4581413 -3.71236992 -0.417656541)
(22.4446201 -3.71038628 -0.416315377)
(21.5932331 -3.3798306 -0.378560603)
(22.4306355 -3.70840001 -0.41227144)
(18.7105999 -2.3368001 -0.245517865)
(17.1993542 -1.87960005 -0.162823677)
(14.273591 -1.03891242 0.030875707)
(14.2753973 -1.03890419 0.0280159991)
(19.6175804 -2.64102602 -0.290538162)
(16.4999065 -1.65524197 -0.137781948)
(16.3708801 -1.62960172 -0.127528667)
(15.1654043 -1.28176856 -0.0467698574)
(15.2629099 -1.29665017 -0.0576402992)
(14.399682 -1.05815125 0.00180040055)
(14.3601913 -1.05320358 0.00798695348)
(14.2793264 -1.03652835 0.0197156444)
(21.0142403 -3.15304947 -0.353571802)
(20.519125 -2.96428156 -0.332074523)
(18.0608292 -2.12783217 -0.220694572)
(18.0826225 -2.13384271 -0.222374022)
(15.4795094 -1.3615073 -0.0717097893)
(15.5408916 -1.36296165 -0.078009598)
(15.4038029 -1.35055125 -0.0631254017)
(19.4911575 -2.5938251 -0.291274756)
(19.5002766 -2.59607053 -0.292280585)
(18.8115253 -2.36590433 -0.258688837)
(18.8209248 -2.36804414 -0.259864867)
(18.8083649 -2.36329865 -0.259604007)
(18.8273335 -2.36757708 -0.26115188)
(17.3061523 -1.90628481 -0.179384962)
(17.3135014 -1.90806401 -0.180153638)
(19.4436607 -2.57664728 -0.28965193)
(19.482933 -2.58996439 -0.291556925)
(21.5437031 -0.491886973 -0.566183805)
(21.5438251 -0.483295441 -0.562937677)
(12.8785086 -0.446593732 0.208984748)
(12.8911982 -0.447797954 0.20891358)
(12.8785343 -0.445585102 0.209657326)
(12.8912468 -0.44580555 0.210236102)
(12.9151478 -0.450067937 0.208760053)
(12.9152422 -0.44628638 0.211250156)
(12.9391356 -0.452335656 0.208582014)
(12.939271 -0.446847975 0.212170169)
(12.9871902 -0.456851751 0.208155438)
(12.987401 -0.448189348 0.213756919)
(24.803318 -3.82191753 -0.465451688)
(23.6403732 -1.907166 -0.406032205)
(24.4225597 -2.12184358 -0.439589679)
(24.4049091 -2.07352996 -0.445472807)
(23.8830948 -2.27421999 -0.373889029)
(25.1535816 -4.49580002 -0.488441736)
(22.6096115 -3.77824235 -0.422092885)
(22.6126328 -3.77903986 -0.422657549)
(24.1943512 -4.44460392 -0.505998492)
(24.0669441 -4.40691519 -0.498602748)
(24.0951633 -4.41586113 -0.500428975)
(23.9859638 -4.37883329 -0.494069606)
(23.8344307 -4.31947327 -0.484827578)
(23.8673992 -4.332973 -0.487015277)
(23.7751274 -4.29406309 -0.481284529)
(24.1517429 -4.43269587 -0.503798068)
(24.159111 -4.43490887 -0.504104674)
(24.0523434 -4.40179443 -0.498111516)
(24.0661659 -4.40633106 -0.498935252)
(23.9332924 -4.35889912 -0.491082102)
(23.943346 -4.36291456 -0.491598189)
(23.7616978 -4.28808403 -0.48062259)
(23.7482796 -4.28205919 -0.479908586)
(24.4519672 -4.4953227 -0.519440949)
(23.9483814 -4.36492395 -0.491806984)
(23.6472912 -4.23617649 -0.473880172)
(24.3551426 -4.48015881 -0.514777958)
(24.3230019 -4.47408819 -0.513138413)
(24.2701702 -4.46325254 -0.510002017)
(24.0134296 -4.38844204 -0.495833933)
(24.0162296 -4.38960266 -0.49588117)
(23.7748146 -4.29356766 -0.481576115)
(23.7761974 -4.29424095 -0.481634796)
(24.4516354 -4.49556112 -0.519235432)
(24.4496307 -4.4953227 -0.519092679)
(24.4176655 -4.49074507 -0.517708361)
(24.4268627 -4.49206877 -0.518170416)
(24.3963737 -4.4873929 -0.516734779)
(24.3125114 -4.47212219 -0.512533665)
(23.689785 -4.25551844 -0.476524055)
(23.6847382 -4.25338984 -0.476138473)
(23.5734253 -4.20127916 -0.469736159)
(23.5703411 -4.19982672 -0.469554573)
(23.49893 -4.16557217 -0.465573609)
(23.4999352 -4.16593504 -0.465646774)
(23.2034054 -4.02556467 -0.449880481)
(23.1967564 -4.0223465 -0.449641973)
(23.1546497 -4.00325584 -0.44750151)
(23.1562023 -4.00413465 -0.447416931)
(23.5745544 -4.20201111 -0.469650835)
(23.5752983 -4.20221901 -0.469817966)
(23.498003 -4.16543198 -0.465358466)
(23.4990501 -4.16593504 -0.46541664)
(23.4594498 -4.14687252 -0.463268816)
(23.4576187 -4.1459837 -0.463176876)
(23.3957596 -4.11618423 -0.459878951)
(23.3985786 -4.11752272 -0.460036933)
(22.8492813 -3.87247634 -0.433376312)
(22.8465919 -3.87187958 -0.432833284)
(23.5464859 -4.18839407 -0.468228161)
(23.5473003 -4.18863535 -0.468304366)
(23.4974098 -4.16506147 -0.465399355)
(23.4960022 -4.16462231 -0.464997053)
(23.4966755 -4.16483545 -0.465241909)
(23.4954243 -4.16394901 -0.465363562)
(23.4967632 -4.16456127 -0.465446353)
(18.0105762 -2.11372614 -0.181110948)
(18.0249996 -2.11370969 -0.167527705)
(19.1331596 -2.47549224 -0.257788688)
(19.1320324 -2.47550559 -0.261468112)
(19.1489544 -2.47240305 -0.230567276)
(22.041975 -0.535841942 -0.618216693)
(22.0513649 -0.499685824 -0.614051878)
(24.804203 -3.82201672 -0.443452001)
(25.0442123 -3.84809995 -0.470920831)
(24.4020214 -2.06543541 -0.44459039)
(24.3830986 -2.01416397 -0.455901295)
(25.1540012 -4.49580002 -0.477250218)
(24.8439026 -4.49580002 -0.475362033)
(24.6645489 -4.49580002 -0.482698768)
(24.5347538 -4.49580002 -0.497019857)
(24.493906 -4.49580002 -0.504374385)
(24.465353 -4.49580002 -0.511541247)
(24.4537277 -4.49580002 -0.516821921)
(23.0969009 -3.97661114 -0.439045101)
(22.7893982 -3.84809995 -0.423888177)
(25.0442982 -3.84809995 -0.468636602)
(27.9042873 -0.520699978 -0.7934165)
(27.5991592 -0.520699978 -0.823219061)
(27.6060143 -0.520699978 -0.748696983)
(26.8742657 -0.520699978 -0.778305769)
(26.8731232 -0.520699978 -0.662891448)
(26.1495533 -0.520699978 -0.714703977)
(25.243124 -0.520699978 -0.615452945)
(25.124176 -0.520699978 -0.516594112)
(26.1378956 -0.520699978 -0.593605101)
(24.7929726 -0.520699978 -0.554364681)
(24.7871532 -0.520699978 -0.498885453)
(24.6440086 -0.520699978 -0.52827704)
(24.5945969 -0.520699978 -0.51610589)
(24.6074333 -0.520699978 -0.497715563)
(24.5829201 -0.520699978 -0.511806965)
(24.5891972 -0.520699978 -0.499671817)
(24.579504 -0.520699978 -0.510082304)
(24.5815067 -0.520699978 -0.501334488)
(24.5776062 -0.520699978 -0.508848131)